egret/models/tests/transmission_test_instances/acopf_solution_files/pglib_opf_case30_ieee_acopf_solution.json
{"elements": {"bus": {"1": {"matpower_bustype": "ref", "area": 1.0, "vm": 1.06, "va": 0.0, "base_kv": 132.0, "zone": 1.0, "v_min": 0.94, "v_max": 1.06, "lmp": 18.421528000692973, "qlmp": 5.902671800015127e-05, "pl": 0}, "2": {"matpower_bustype": "PV", "area": 1.0, "vm": 1.0357026589068974, "va": -0.07170575334897111, "base_kv": 132.0, "zone": 1.0, "v_min": 0.94, "v_max": 1.06, "lmp": 52.18225400337511, "qlmp": 1.5391709972211536e-07, "pl": 0.217}, "3": {"matpower_bustype": "PQ", "area": 1.0, "vm": 1.0147553392502346, "va": -0.11960848449800537, "base_kv": 132.0, "zone": 1.0, "v_min": 0.94, "v_max": 1.06, "lmp": 39.60299010388054, "qlmp": 180.01370318554052, "pl": 0.024}, "4": {"matpower_bustype": "PQ", "area": 1.0, "vm": 1.0041344170645985, "va": -0.1473961203455566, "base_kv": 132.0, "zone": 1.0, "v_min": 0.94, "v_max": 1.06, "lmp": 44.94612289957986, "qlmp": 117.7977014782076, "pl": 0.076}, "5": {"matpower_bustype": "PV", "area": 1.0, "vm": 0.9959219310485853, "va": -0.22899982092460255, "base_kv": 132.0, "zone": 1.0, "v_min": 0.94, "v_max": 1.06, "lmp": 53.07149747380535, "qlmp": 4.770133050811862e-07, "pl": 0.9420000000000001}, "6": {"matpower_bustype": "PQ", "area": 1.0, "vm": 1.0012463036157147, "va": -0.17725763669044645, "base_kv": 132.0, "zone": 1.0, "v_min": 0.94, "v_max": 1.06, "lmp": 48.070686817141905, "qlmp": 82.86750855291456, "pl": 0}, "7": {"matpower_bustype": "PQ", "area": 1.0, "vm": 0.9911701995139315, "va": -0.20792459865744872, "base_kv": 132.0, "zone": 1.0, "v_min": 0.94, "v_max": 1.06, "lmp": 50.46293335275578, "qlmp": 78.98029382699815, "pl": 0.228}, "8": {"matpower_bustype": "PV", "area": 1.0, "vm": 1.0019606406354322, "va": -0.19084694739369912, "base_kv": 132.0, "zone": 1.0, "v_min": 0.94, "v_max": 1.06, "lmp": 48.425972163067684, "qlmp": 71.26895579097452, "pl": 0.3}, "9": {"matpower_bustype": "PQ", "area": 1.0, "vm": 1.0364558379391402, "va": -0.23156572790761545, "base_kv": 1.0, "zone": 1.0, "v_min": 0.94, "v_max": 1.06, "lmp": 47.746268951116825, "qlmp": 46.33168959316991, "pl": 0}, "10": {"matpower_bustype": "PQ", "area": 1.0, "vm": 1.0319306549670029, "va": -0.2600490517734462, "base_kv": 33.0, "zone": 1.0, "v_min": 0.94, "v_max": 1.06, "lmp": 47.56795750323065, "qlmp": 53.794531082563346, "pl": 0.057999999999999996}, "11": {"matpower_bustype": "PV", "area": 1.0, "vm": 1.06, "va": -0.23156572790761545, "base_kv": 11.0, "zone": 1.0, "v_min": 0.94, "v_max": 1.06, "lmp": 47.74626895112107, "qlmp": 1.317007235177762e-07, "pl": 0}, "12": {"matpower_bustype": "PQ", "area": 1.0, "vm": 1.0460740563004152, "va": -0.24770290159539515, "base_kv": 33.0, "zone": 1.0, "v_min": 0.94, "v_max": 1.06, "lmp": 46.03339824486653, "qlmp": 54.366678064118226, "pl": 0.11199999999999999}, "13": {"matpower_bustype": "PV", "area": 1.0, "vm": 1.06, "va": -0.24770290159539515, "base_kv": 11.0, "zone": 1.0, "v_min": 0.94, "v_max": 1.06, "lmp": 46.03339824486955, "qlmp": 6.580107639073699e-08, "pl": 0}, "14": {"matpower_bustype": "PQ", "area": 1.0, "vm": 1.0308360648782502, "va": -0.26351717325618235, "base_kv": 33.0, "zone": 1.0, "v_min": 0.94, "v_max": 1.06, "lmp": 46.953507309081985, "qlmp": 79.50731044759615, "pl": 0.062}, "15": {"matpower_bustype": "PQ", "area": 1.0, "vm": 1.0259997249118173, "va": -0.2649731622934993, "base_kv": 33.0, "zone": 1.0, "v_min": 0.94, "v_max": 1.06, "lmp": 47.32000389233289, "qlmp": 89.5136376829981, "pl": 0.08199999999999999}, "16": {"matpower_bustype": "PQ", "area": 1.0, "vm": 1.0323725994679436, "va": -0.25754373608772424, "base_kv": 33.0, "zone": 1.0, "v_min": 0.94, "v_max": 1.06, "lmp": 47.016995904035355, "qlmp": 70.72254916156419, "pl": 0.035}, "17": {"matpower_bustype": "PQ", "area": 1.0, "vm": 1.0269978342782269, "va": -0.26315246591898517, "base_kv": 33.0, "zone": 1.0, "v_min": 0.94, "v_max": 1.06, "lmp": 47.5668391020025, "qlmp": 71.3826809729002, "pl": 0.09}, "18": {"matpower_bustype": "PQ", "area": 1.0, "vm": 1.0157886561189087, "va": -0.27565345269239383, "base_kv": 33.0, "zone": 1.0, "v_min": 0.94, "v_max": 1.06, "lmp": 48.104119767026425, "qlmp": 101.14532937787811, "pl": 0.032}, "19": {"matpower_bustype": "PQ", "area": 1.0, "vm": 1.0129208635266116, "va": -0.2785830314029601, "base_kv": 33.0, "zone": 1.0, "v_min": 0.94, "v_max": 1.06, "lmp": 48.37771315960529, "qlmp": 101.96464771562125, "pl": 0.095}, "20": {"matpower_bustype": "PQ", "area": 1.0, "vm": 1.0168816711229371, "va": -0.2749707007898327, "base_kv": 33.0, "zone": 1.0, "v_min": 0.94, "v_max": 1.06, "lmp": 48.206723617771324, "qlmp": 90.9767515540296, "pl": 0.022000000000000002}, "21": {"matpower_bustype": "PQ", "area": 1.0, "vm": 1.0195377217210142, "va": -0.26800160556498975, "base_kv": 33.0, "zone": 1.0, "v_min": 0.94, "v_max": 1.06, "lmp": 48.0701023113869, "qlmp": 86.11642394847927, "pl": 0.175}, "22": {"matpower_bustype": "PQ", "area": 1.0, "vm": 1.020129569111451, "va": -0.26775612451542646, "base_kv": 33.0, "zone": 1.0, "v_min": 0.94, "v_max": 1.06, "lmp": 48.04563605146808, "qlmp": 84.41359811867787, "pl": 0}, "23": {"matpower_bustype": "PQ", "area": 1.0, "vm": 1.0150748308402218, "va": -0.2717015026173961, "base_kv": 33.0, "zone": 1.0, "v_min": 0.94, "v_max": 1.06, "lmp": 48.0383905516172, "qlmp": 110.11119006461168, "pl": 0.032}, "24": {"matpower_bustype": "PQ", "area": 1.0, "vm": 1.0090057655811169, "va": -0.27452163465613505, "base_kv": 33.0, "zone": 1.0, "v_min": 0.94, "v_max": 1.06, "lmp": 48.59407092409853, "qlmp": 116.27206493787924, "pl": 0.087}, "25": {"matpower_bustype": "PQ", "area": 1.0, "vm": 1.005850726904687, "va": -0.2669245922631395, "base_kv": 33.0, "zone": 1.0, "v_min": 0.94, "v_max": 1.06, "lmp": 48.57825729635605, "qlmp": 129.224558111704, "pl": 0}, "26": {"matpower_bustype": "PQ", "area": 1.0, "vm": 0.9879635102481531, "va": -0.2744203569080449, "base_kv": 33.0, "zone": 1.0, "v_min": 0.94, "v_max": 1.06, "lmp": 49.51215840654279, "qlmp": 191.6025123808892, "pl": 0.035}, "27": {"matpower_bustype": "PQ", "area": 1.0, "vm": 1.012542945830337, "va": -0.2575741784233465, "base_kv": 33.0, "zone": 1.0, "v_min": 0.94, "v_max": 1.06, "lmp": 48.19044604965959, "qlmp": 109.2414030226575, "pl": 0}, "28": {"matpower_bustype": "PQ", "area": 1.0, "vm": 0.9977959158263291, "va": -0.1884178540349971, "base_kv": 132.0, "zone": 1.0, "v_min": 0.94, "v_max": 1.06, "lmp": 48.364340124075234, "qlmp": 87.64138241594208, "pl": 0}, "29": {"matpower_bustype": "PQ", "area": 1.0, "vm": 0.9924709739964254, "va": -0.2795066322279046, "base_kv": 33.0, "zone": 1.0, "v_min": 0.94, "v_max": 1.06, "lmp": 49.592669502766555, "qlmp": 148.66499745239724, "pl": 0.024}, "30": {"matpower_bustype": "PQ", "area": 1.0, "vm": 0.9808625799684357, "va": -0.2952602835463934, "base_kv": 33.0, "zone": 1.0, "v_min": 0.94, "v_max": 1.06, "lmp": 50.56472963747394, "qlmp": 164.8343358231407, "pl": 0.106}}, "load": {"load_2": {"in_service": true, "p_load": 2170.0, "q_load": 1270.0, "bus": "2"}, "load_3": {"in_service": true, "p_load": 240.0, "q_load": 120.0, "bus": "3"}, "load_4": {"in_service": true, "p_load": 760.0, "q_load": 160.0, "bus": "4"}, "load_5": {"in_service": true, "p_load": 9420.0, "q_load": 1900.0, "bus": "5"}, "load_7": {"in_service": true, "p_load": 2280.0, "q_load": 1090.0, "bus": "7"}, "load_8": {"in_service": true, "p_load": 3000.0, "q_load": 3000.0, "bus": "8"}, "load_10": {"in_service": true, "p_load": 580.0, "q_load": 200.0, "bus": "10"}, "load_12": {"in_service": true, "p_load": 1120.0, "q_load": 750.0, "bus": "12"}, "load_14": {"in_service": true, "p_load": 620.0, "q_load": 160.0, "bus": "14"}, "load_15": {"in_service": true, "p_load": 819.9999999999999, "q_load": 250.0, "bus": "15"}, "load_16": {"in_service": true, "p_load": 350.0, "q_load": 180.0, "bus": "16"}, "load_17": {"in_service": true, "p_load": 900.0, "q_load": 580.0, "bus": "17"}, "load_18": {"in_service": true, "p_load": 320.0, "q_load": 90.0, "bus": "18"}, "load_19": {"in_service": true, "p_load": 950.0, "q_load": 340.0, "bus": "19"}, "load_20": {"in_service": true, "p_load": 220.00000000000003, "q_load": 70.0, "bus": "20"}, "load_21": {"in_service": true, "p_load": 1750.0, "q_load": 1120.0, "bus": "21"}, "load_23": {"in_service": true, "p_load": 320.0, "q_load": 160.0, "bus": "23"}, "load_24": {"in_service": true, "p_load": 869.9999999999999, "q_load": 670.0, "bus": "24"}, "load_26": {"in_service": true, "p_load": 350.0, "q_load": 229.99999999999997, "bus": "26"}, "load_29": {"in_service": true, "p_load": 240.0, "q_load": 90.0, "bus": "29"}, "load_30": {"in_service": true, "p_load": 1060.0, "q_load": 190.0, "bus": "30"}}, "shunt": {"shunt_10": {"shunt_type": "fixed", "bs": 1900.0, "gs": 0.0, "bus": "10"}, "shunt_24": {"shunt_type": "fixed", "bs": 430.0, "gs": 0.0, "bus": "24"}}, "generator": {"1": {"bus": "1", "pg": 218.85462848500708, "qg": 9.920271868824862, "vg": 1.0, "mbase": 100.0, "in_service": true, "p_min": 0.0, "p_max": 27100.0, "q_min": 0.0, "q_max": 1000.0, "generator_type": "thermal", "p_cost": {"data_type": "cost_curve", "cost_curve_type": "polynomial", "values": {"0": 0.0, "1": 0.18421527999999998, "2": 0.0}}, "startup_cost": 0.0, "shutdown_cost": 0.0}, "2": {"bus": "2", "pg": 80.0440464208523, "qg": 25.084060066761204, "vg": 1.0, "mbase": 100.0, "in_service": true, "p_min": 0.0, "p_max": 9200.0, "q_min": -4000.0, "q_max": 4600.0, "generator_type": "thermal", "p_cost": {"data_type": "cost_curve", "cost_curve_type": "polynomial", "values": {"0": 0.0, "1": 0.5218225400000001, "2": 0.0}}, "startup_cost": 0.0, "shutdown_cost": 0.0}, "3": {"bus": "5", "pg": 0.0, "qg": 31.27284602015617, "vg": 1.0, "mbase": 100.0, "in_service": true, "p_min": 0.0, "p_max": 0.0, "q_min": -4000.0, "q_max": 4000.0, "generator_type": "thermal", "p_cost": {"data_type": "cost_curve", "cost_curve_type": "polynomial", "values": {"0": 0.0, "1": 0.0, "2": 0.0}}, "startup_cost": 0.0, "shutdown_cost": 0.0}, "4": {"bus": "8", "pg": 0.0, "qg": 40.0, "vg": 1.0, "mbase": 100.0, "in_service": true, "p_min": 0.0, "p_max": 0.0, "q_min": -1000.0, "q_max": 4000.0, "generator_type": "thermal", "p_cost": {"data_type": "cost_curve", "cost_curve_type": "polynomial", "values": {"0": 0.0, "1": 0.0, "2": 0.0}}, "startup_cost": 0.0, "shutdown_cost": 0.0}, "5": {"bus": "11", "pg": 0.0, "qg": 11.998472511918816, "vg": 1.0, "mbase": 100.0, "in_service": true, "p_min": 0.0, "p_max": 0.0, "q_min": -600.0, "q_max": 2400.0, "generator_type": "thermal", "p_cost": {"data_type": "cost_curve", "cost_curve_type": "polynomial", "values": {"0": 0.0, "1": 0.0, "2": 0.0}}, "startup_cost": 0.0, "shutdown_cost": 0.0}, "6": {"bus": "13", "pg": 0.0, "qg": 10.543936753108728, "vg": 1.0, "mbase": 100.0, "in_service": true, "p_min": 0.0, "p_max": 0.0, "q_min": -600.0, "q_max": 2400.0, "generator_type": "thermal", "p_cost": {"data_type": "cost_curve", "cost_curve_type": "polynomial", "values": {"0": 0.0, "1": 0.0, "2": 0.0}}, "startup_cost": 0.0, "shutdown_cost": 0.0}}, "branch": {"1": {"from_bus": "1", "to_bus": "2", "resistance": 0.0192, "reactance": 0.0575, "charging_susceptance": 0.0528, "branch_type": "line", "rating_long_term": 13800.0, "rating_short_term": 13800.0, "rating_emergency": 13800.0, "in_service": true, "angle_diff_min": -30.0, "angle_diff_max": 30.0, "pf": 137.9984591540519, "qf": 0.6522738691925032, "pt": -134.74206867358077, "qt": 3.3017579525303398}, "2": {"from_bus": "1", "to_bus": "3", "resistance": 0.0452, "reactance": 0.1652, "charging_susceptance": 0.0408, "branch_type": "line", "rating_long_term": 15200.0, "rating_short_term": 15200.0, "rating_emergency": 15200.0, "in_service": true, "angle_diff_min": -30.0, "angle_diff_max": 30.0, "pf": 80.8561693309552, "qf": 9.26799799963236, "pt": -78.17242662393487, "qt": -3.852064632928784}, "3": {"from_bus": "2", "to_bus": "4", "resistance": 0.057, "reactance": 0.1737, "charging_susceptance": 0.0368, "branch_type": "line", "rating_long_term": 13900.0, "rating_short_term": 13900.0, "rating_emergency": 13900.0, "in_service": true, "angle_diff_min": -30.0, "angle_diff_max": 30.0, "pf": 46.95719306347257, "qf": 3.1542725891167, "pt": -45.77153992124911, "qt": -3.3701279475520325}, "4": {"from_bus": "3", "to_bus": "4", "resistance": 0.0132, "reactance": 0.0379, "charging_susceptance": 0.0084, "branch_type": "line", "rating_long_term": 13500.0, "rating_short_term": 13500.0, "rating_emergency": 13500.0, "in_service": true, "angle_diff_min": -30.0, "angle_diff_max": 30.0, "pf": 75.77242662393488, "qf": 2.6520646329287842, "pt": -75.03521406110879, "qt": -1.3913370035822976}, "5": {"from_bus": "2", "to_bus": "5", "resistance": 0.0472, "reactance": 0.1983, "charging_susceptance": 0.0418, "branch_type": "line", "rating_long_term": 14400.0, "rating_short_term": 14400.0, "rating_emergency": 14400.0, "in_service": true, "angle_diff_min": -30.0, "angle_diff_max": 30.0, "pf": 83.23923042596263, "qf": 5.143843274078699, "pt": -80.16643477850651, "qt": 3.4509149164412554}, "6": {"from_bus": "2", "to_bus": "6", "resistance": 0.0581, "reactance": 0.1763, "charging_susceptance": 0.0374, "branch_type": "line", "rating_long_term": 13900.0, "rating_short_term": 13900.0, "rating_emergency": 13900.0, "in_service": true, "angle_diff_min": -30.0, "angle_diff_max": 30.0, "pf": 62.889691604997864, "qf": 0.7841862510354674, "pt": -60.743251177712644, "qt": 1.84844714943924}, "7": {"from_bus": "4", "to_bus": "6", "resistance": 0.0119, "reactance": 0.0414, "charging_susceptance": 0.009, "branch_type": "line", "rating_long_term": 14800.0, "rating_short_term": 14800.0, "rating_emergency": 14800.0, "in_service": true, "angle_diff_min": -30.0, "angle_diff_max": 30.0, "pf": 69.12080592575985, "qf": -12.234160312562379, "pt": -68.54055458491418, "qt": 13.347998811685748}, "8": {"from_bus": "5", "to_bus": "7", "resistance": 0.046, "reactance": 0.116, "charging_susceptance": 0.0204, "branch_type": "line", "rating_long_term": 12700.0, "rating_short_term": 12700.0, "rating_emergency": 12700.0, "in_service": true, "angle_diff_min": -30.0, "angle_diff_max": 30.0, "pf": -14.033565221493502, "qf": 8.821931103714915, "pt": 14.169748643273417, "qt": -10.492276474386985}, "9": {"from_bus": "6", "to_bus": "7", "resistance": 0.0267, "reactance": 0.082, "charging_susceptance": 0.017, "branch_type": "line", "rating_long_term": 14000.0, "rating_short_term": 14000.0, "rating_emergency": 14000.0, "in_service": true, "angle_diff_min": -30.0, "angle_diff_max": 30.0, "pf": 37.34125462163772, "qf": -0.13849743045198207, "pt": -36.96974864327341, "qt": -0.4077235256130134}, "10": {"from_bus": "6", "to_bus": "8", "resistance": 0.012, "reactance": 0.042, "charging_susceptance": 0.009, "branch_type": "line", "rating_long_term": 14800.0, "rating_short_term": 14800.0, "rating_emergency": 14800.0, "in_service": true, "angle_diff_min": -30.0, "angle_diff_max": 30.0, "pf": 29.617086771845187, "qf": -10.395522653538086, "pt": -29.500250628841655, "qt": 9.9015604754008}, "11": {"from_bus": "6", "to_bus": "9", "resistance": 0.0, "reactance": 0.208, "charging_susceptance": 0.0, "transformer_tap_ratio": 0.978, "transformer_phase_shift": 0.0, "branch_type": "transformer", "rating_long_term": 14200.0, "rating_short_term": 14200.0, "rating_emergency": 14200.0, "in_service": true, "angle_diff_min": -30.0, "angle_diff_max": 30.0, "pf": 27.691123304140717, "qf": -5.4921978988475075, "pt": -27.691123304140717, "qt": 7.073799535310379}, "12": {"from_bus": "6", "to_bus": "10", "resistance": 0.0, "reactance": 0.556, "charging_susceptance": 0.0, "transformer_tap_ratio": 0.969, "transformer_phase_shift": 0.0, "branch_type": "transformer", "rating_long_term": 5300.0, "rating_short_term": 5300.0, "rating_emergency": 5300.0, "in_service": true, "angle_diff_min": -30.0, "angle_diff_max": 30.0, "pf": 15.859223663954788, "qf": 0.9072564277714962, "pt": -15.859223663954788, "qt": 0.40682810840735206}, "13": {"from_bus": "9", "to_bus": "11", "resistance": 0.0, "reactance": 0.208, "charging_susceptance": 0.0, "transformer_tap_ratio": 1.0, "transformer_phase_shift": 0.0, "branch_type": "transformer", "rating_long_term": 14200.0, "rating_short_term": 14200.0, "rating_emergency": 14200.0, "in_service": true, "angle_diff_min": -30.0, "angle_diff_max": 30.0, "pf": 0.0, "qf": -11.731968643201158, "pt": 0.0, "qt": 11.998472511918816}, "14": {"from_bus": "9", "to_bus": "10", "resistance": 0.0, "reactance": 0.11, "charging_susceptance": 0.0, "transformer_tap_ratio": 1.0, "transformer_phase_shift": 0.0, "branch_type": "transformer", "rating_long_term": 26700.0, "rating_short_term": 26700.0, "rating_emergency": 26700.0, "in_service": true, "angle_diff_min": -30.0, "angle_diff_max": 30.0, "pf": 27.691123304140717, "qf": 4.65816910789078, "pt": -27.691123304140717, "qt": -3.850764835289026}, "15": {"from_bus": "4", "to_bus": "12", "resistance": 0.0, "reactance": 0.256, "charging_susceptance": 0.0, "transformer_tap_ratio": 0.932, "transformer_phase_shift": 0.0, "branch_type": "transformer", "rating_long_term": 11500.0, "rating_short_term": 11500.0, "rating_emergency": 11500.0, "in_service": true, "angle_diff_min": -30.0, "angle_diff_max": 30.0, "pf": 44.085948056598035, "qf": 15.395625263696708, "pt": -44.085948056598035, "qt": -10.58653073402823}, "16": {"from_bus": "12", "to_bus": "13", "resistance": 0.0, "reactance": 0.14, "charging_susceptance": 0.0, "transformer_tap_ratio": 1.0, "transformer_phase_shift": 0.0, "branch_type": "transformer", "rating_long_term": 21000.0, "rating_short_term": 21000.0, "rating_emergency": 21000.0, "in_service": true, "angle_diff_min": -30.0, "angle_diff_max": 30.0, "pf": 0.0, "qf": -10.40541375550217, "pt": 0.0, "qt": 10.543936753108728}, "17": {"from_bus": "12", "to_bus": "14", "resistance": 0.1231, "reactance": 0.2559, "charging_susceptance": 0.0, "branch_type": "line", "rating_long_term": 2900.0, "rating_short_term": 2900.0, "rating_emergency": 2900.0, "in_service": true, "angle_diff_min": -30.0, "angle_diff_max": 30.0, "pf": 7.865364978731379, "qf": 2.498101180669469, "pt": -7.788750853963748, "qt": -2.33883591236703}, "18": {"from_bus": "12", "to_bus": "15", "resistance": 0.0662, "reactance": 0.1304, "charging_susceptance": 0.0, "branch_type": "line", "rating_long_term": 2900.0, "rating_short_term": 2900.0, "rating_emergency": 2900.0, "in_service": true, "angle_diff_min": -30.0, "angle_diff_max": 30.0, "pf": 17.850793774287986, "qf": 7.1641609173119205, "pt": -17.626969736294996, "qt": -6.723274896854499}, "19": {"from_bus": "12", "to_bus": "16", "resistance": 0.0945, "reactance": 0.1987, "charging_susceptance": 0.0, "branch_type": "line", "rating_long_term": 3000.0, "rating_short_term": 3000.0, "rating_emergency": 3000.0, "in_service": true, "angle_diff_min": -30.0, "angle_diff_max": 30.0, "pf": 7.1697893035786775, "qf": 3.8296823915490124, "pt": -7.112729972958985, "qt": -3.7097068466375047}, "20": {"from_bus": "14", "to_bus": "15", "resistance": 0.221, "reactance": 0.1997, "charging_susceptance": 0.0, "branch_type": "line", "rating_long_term": 2000.0, "rating_short_term": 2000.0, "rating_emergency": 2000.0, "in_service": true, "angle_diff_min": -30.0, "angle_diff_max": 30.0, "pf": 1.5887508539637483, "qf": 0.7388359123670294, "pt": -1.5823659768778031, "qt": -0.7330664103124696}, "21": {"from_bus": "16", "to_bus": "17", "resistance": 0.0524, "reactance": 0.1923, "charging_susceptance": 0.0, "branch_type": "line", "rating_long_term": 3800.0, "rating_short_term": 3800.0, "rating_emergency": 3800.0, "in_service": true, "angle_diff_min": -30.0, "angle_diff_max": 30.0, "pf": 3.612729972958985, "qf": 1.9097068466375045, "pt": -3.6045199653013773, "qt": -1.8795773719701647}, "22": {"from_bus": "15", "to_bus": "18", "resistance": 0.1073, "reactance": 0.2185, "charging_susceptance": 0.0, "branch_type": "line", "rating_long_term": 2900.0, "rating_short_term": 2900.0, "rating_emergency": 2900.0, "in_service": true, "angle_diff_min": -30.0, "angle_diff_max": 30.0, "pf": 6.012242139749195, "qf": 1.8695004470700494, "pt": -5.971834661414911, "qt": -1.787216812251434}, "23": {"from_bus": "18", "to_bus": "19", "resistance": 0.0639, "reactance": 0.1292, "charging_susceptance": 0.0, "branch_type": "line", "rating_long_term": 2900.0, "rating_short_term": 2900.0, "rating_emergency": 2900.0, "in_service": true, "angle_diff_min": -30.0, "angle_diff_max": 30.0, "pf": 2.771834661414911, "qf": 0.8872168122514339, "pt": -2.7665891373213536, "qt": -0.8766108386538299}, "24": {"from_bus": "19", "to_bus": "20", "resistance": 0.034, "reactance": 0.068, "charging_susceptance": 0.0, "branch_type": "line", "rating_long_term": 2900.0, "rating_short_term": 2900.0, "rating_emergency": 2900.0, "in_service": true, "angle_diff_min": -30.0, "angle_diff_max": 30.0, "pf": -6.733410862678646, "qf": -2.52338916134617, "pt": 6.750545363989382, "qt": 2.5576581639676417}, "25": {"from_bus": "10", "to_bus": "20", "resistance": 0.0936, "reactance": 0.209, "charging_susceptance": 0.0, "branch_type": "line", "rating_long_term": 3000.0, "rating_short_term": 3000.0, "rating_emergency": 3000.0, "in_service": true, "angle_diff_min": -30.0, "angle_diff_max": 30.0, "pf": 9.032667467930736, "qf": 3.441029101187042, "pt": -8.95054536398938, "qt": -3.2576581639676414}, "26": {"from_bus": "10", "to_bus": "17", "resistance": 0.0324, "reactance": 0.0845, "charging_susceptance": 0.0, "branch_type": "line", "rating_long_term": 3300.0, "rating_short_term": 3300.0, "rating_emergency": 3300.0, "in_service": true, "angle_diff_min": -30.0, "angle_diff_max": 30.0, "pf": 5.40914409280317, "qf": 3.956058828950649, "pt": -5.395480034698622, "qt": -3.9204226280298347}, "27": {"from_bus": "10", "to_bus": "21", "resistance": 0.0348, "reactance": 0.0749, "charging_susceptance": 0.0, "branch_type": "line", "rating_long_term": 3000.0, "rating_short_term": 3000.0, "rating_emergency": 3000.0, "in_service": true, "angle_diff_min": -30.0, "angle_diff_max": 30.0, "pf": 15.728823340577868, "qf": 9.810795483141252, "pt": -15.61652029849152, "qt": -9.569085774743126}, "28": {"from_bus": "10", "to_bus": "22", "resistance": 0.0727, "reactance": 0.1499, "charging_susceptance": 0.0, "branch_type": "line", "rating_long_term": 2900.0, "rating_short_term": 2900.0, "rating_emergency": 2900.0, "in_service": true, "angle_diff_min": -30.0, "angle_diff_max": 30.0, "pf": 7.579712066783735, "qf": 4.46878997015465, "pt": -7.526855562727265, "qt": -4.359805238957085}, "29": {"from_bus": "21", "to_bus": "22", "resistance": 0.0116, "reactance": 0.0236, "charging_susceptance": 0.0, "branch_type": "line", "rating_long_term": 2900.0, "rating_short_term": 2900.0, "rating_emergency": 2900.0, "in_service": true, "angle_diff_min": -30.0, "angle_diff_max": 30.0, "pf": -1.8834797015084794, "qf": -1.630914225256873, "pt": 1.8841724243595783, "qt": 1.6323235579532005}, "30": {"from_bus": "15", "to_bus": "23", "resistance": 0.1, "reactance": 0.202, "charging_susceptance": 0.0, "branch_type": "line", "rating_long_term": 2900.0, "rating_short_term": 2900.0, "rating_emergency": 2900.0, "in_service": true, "angle_diff_min": -30.0, "angle_diff_max": 30.0, "pf": 4.997093573423602, "qf": 3.086840860096919, "pt": -4.964320384734071, "qt": -3.020639018944043}, "31": {"from_bus": "22", "to_bus": "24", "resistance": 0.115, "reactance": 0.179, "charging_susceptance": 0.0, "branch_type": "line", "rating_long_term": 2600.0, "rating_short_term": 2600.0, "rating_emergency": 2600.0, "in_service": true, "angle_diff_min": -30.0, "angle_diff_max": 30.0, "pf": 5.642683138367686, "qf": 2.7274816810038844, "pt": -5.599277323371872, "qt": -2.659919586358185}, "32": {"from_bus": "23", "to_bus": "24", "resistance": 0.132, "reactance": 0.27, "charging_susceptance": 0.0, "branch_type": "line", "rating_long_term": 2900.0, "rating_short_term": 2900.0, "rating_emergency": 2900.0, "in_service": true, "angle_diff_min": -30.0, "angle_diff_max": 30.0, "pf": 1.7643203847340707, "qf": 1.4206390189440425, "pt": -1.7577470862765767, "qt": -1.4071936357355432}, "33": {"from_bus": "24", "to_bus": "25", "resistance": 0.1885, "reactance": 0.3292, "charging_susceptance": 0.0, "branch_type": "line", "rating_long_term": 2700.0, "rating_short_term": 2700.0, "rating_emergency": 2700.0, "in_service": true, "angle_diff_min": -30.0, "angle_diff_max": 30.0, "pf": -1.3429755903515508, "qf": 1.7449115524902505, "pt": 1.3519522244395887, "qt": -1.7292345872818808}, "34": {"from_bus": "25", "to_bus": "26", "resistance": 0.2544, "reactance": 0.38, "charging_susceptance": 0.0, "branch_type": "line", "rating_long_term": 2500.0, "rating_short_term": 2500.0, "rating_emergency": 2500.0, "in_service": true, "angle_diff_min": -30.0, "angle_diff_max": 30.0, "pf": 3.5457156487247907, "qf": 2.368285953283903, "pt": -3.5000000000000004, "qt": -2.3}, "35": {"from_bus": "25", "to_bus": "27", "resistance": 0.1093, "reactance": 0.2087, "charging_susceptance": 0.0, "branch_type": "line", "rating_long_term": 2800.0, "rating_short_term": 2800.0, "rating_emergency": 2800.0, "in_service": true, "angle_diff_min": -30.0, "angle_diff_max": 30.0, "pf": -4.897667873164379, "qf": -0.6390513660020222, "pt": 4.924022901071373, "qt": 0.6893742783917652}, "36": {"from_bus": "28", "to_bus": "27", "resistance": 0.0, "reactance": 0.396, "charging_susceptance": 0.0, "transformer_tap_ratio": 0.968, "transformer_phase_shift": 0.0, "branch_type": "transformer", "rating_long_term": 7500.0, "rating_short_term": 7500.0, "rating_emergency": 7500.0, "in_service": true, "angle_diff_min": -30.0, "angle_diff_max": 30.0, "pf": 18.212530946169835, "qf": 5.37731499521235, "pt": -18.212530946169835, "qt": -4.0333053347837255}, "37": {"from_bus": "27", "to_bus": "29", "resistance": 0.2198, "reactance": 0.4153, "charging_susceptance": 0.0, "branch_type": "line", "rating_long_term": 2800.0, "rating_short_term": 2800.0, "rating_emergency": 2800.0, "in_service": true, "angle_diff_min": -30.0, "angle_diff_max": 30.0, "pf": 6.192827253034844, "qf": 1.6743532336434892, "pt": -6.104596734410775, "qt": -1.5076465257974294}, "38": {"from_bus": "27", "to_bus": "30", "resistance": 0.3202, "reactance": 0.6027, "charging_susceptance": 0.0, "branch_type": "line", "rating_long_term": 2800.0, "rating_short_term": 2800.0, "rating_emergency": 2800.0, "in_service": true, "angle_diff_min": -30.0, "angle_diff_max": 30.0, "pf": 7.095680792063619, "qf": 1.6695778227484717, "pt": -6.929727940355019, "qt": -1.3572112277304451}, "39": {"from_bus": "29", "to_bus": "30", "resistance": 0.2399, "reactance": 0.4533, "charging_susceptance": 0.0, "branch_type": "line", "rating_long_term": 2800.0, "rating_short_term": 2800.0, "rating_emergency": 2800.0, "in_service": true, "angle_diff_min": -30.0, "angle_diff_max": 30.0, "pf": 3.704596734410775, "qf": 0.6076465257974293, "pt": -3.6702720596449807, "qt": -0.5427887722695549}, "40": {"from_bus": "8", "to_bus": "28", "resistance": 0.0636, "reactance": 0.2, "charging_susceptance": 0.0428, "branch_type": "line", "rating_long_term": 14000.0, "rating_short_term": 14000.0, "rating_emergency": 14000.0, "in_service": true, "angle_diff_min": -30.0, "angle_diff_max": 30.0, "pf": -0.4997493711583418, "qf": 0.0984404580366536, "pt": 0.5031057506657406, "qt": -4.366862489645234}, "41": {"from_bus": "6", "to_bus": "28", "resistance": 0.0169, "reactance": 0.0599, "charging_susceptance": 0.013, "branch_type": "line", "rating_long_term": 14900.0, "rating_short_term": 14900.0, "rating_emergency": 14900.0, "in_service": true, "angle_diff_min": -30.0, "angle_diff_max": 30.0, "pf": 18.77511740104841, "qf": -0.07748440605890711, "pt": -18.715636696835578, "qt": -1.0104525055671163}}}, "system": {"model_name": "pglib_opf_case30_ieee", "mpc_version": "'2'", "baseMVA": 100.0, "reference_bus": "1", "reference_bus_angle": 0.0, "total_cost": 8208.515428086861}}